$DATA1 SOURCE='HSPICE' VERSION='L-2016.06-SP1-2 linux64' PARAM_COUNT=0
.TITLE '$example hspice setup file to choose wn wp for min area*delay for cout=100ff'
 trise            tfall            tdiff            delay           
 area             iavg             energy           edp             
 adp              aedp             temper           alter#          
  8.610e-11        8.559e-11        5.124e-13         85.8426       
  4.588e+06       -3.211e-06       -115.5796         9.922e+03      
  3.939e+08        4.553e+10         25.0000        1               
